.subckt OR node_a node_b node_out vdd gnd
    X1 node_a node_b nor_out vdd gnd NOR
    X2 nor_out node_out vdd gnd NOT
.ends OR