
.subckt XNOR node_a node_b node_out vdd gnd
   X1 node_a node_b xor_out vdd gnd XOR
   X2 xor_out node_out vdd gnd NOT
   
.ends XNOR